<?xml version="1.0" encoding="ISO-8859-1"?>
<febio_spec version="4.0">
	<Module type="biphasic">
		<units>mm-N-s</units>
	</Module>
	<Control>
		<analysis>TRANSIENT</analysis>
		<time_steps>500</time_steps>
		<step_size>518</step_size>
		<plot_zero_state>0</plot_zero_state>
		<plot_range>0,-1</plot_range>
		<plot_level>PLOT_MAJOR_ITRS</plot_level>
		<output_level>OUTPUT_MAJOR_ITRS</output_level>
		<plot_stride>1</plot_stride>
		<output_stride>1</output_stride>
		<adaptor_re_solve>1</adaptor_re_solve>
		<time_stepper type="default">
			<max_retries>10</max_retries>
			<opt_iter>15</opt_iter>
			<dtmin>10</dtmin>
			<dtmax>5000</dtmax>
			<aggressiveness>0</aggressiveness>
			<cutback>0.5</cutback>
			<dtforce>0</dtforce>
		</time_stepper>
		<solver type="biphasic">
			<symmetric_stiffness>preferred</symmetric_stiffness>
			<equation_scheme>block</equation_scheme>
			<equation_order>default</equation_order>
			<optimize_bw>0</optimize_bw>
			<lstol>0.9</lstol>
			<lsmin>0.01</lsmin>
			<lsiter>5</lsiter>
			<ls_check_jacobians>0</ls_check_jacobians>
			<max_refs>25</max_refs>
			<check_zero_diagonal>0</check_zero_diagonal>
			<zero_diagonal_tol>0</zero_diagonal_tol>
			<force_partition>0</force_partition>
			<reform_each_time_step>1</reform_each_time_step>
			<reform_augment>0</reform_augment>
			<diverge_reform>1</diverge_reform>
			<min_residual>1e-20</min_residual>
			<max_residual>0</max_residual>
			<dtol>0.001</dtol>
			<etol>0.01</etol>
			<rtol>0</rtol>
			<ptol>0.01</ptol>
			<ctol>0</ctol>
			<mixed_formulation>0</mixed_formulation>
			<qn_method type="Broyden">
				<max_ups>0</max_ups>
				<max_buffer_size>0</max_buffer_size>
				<cycle_buffer>1</cycle_buffer>
				<cmax>100000</cmax>
			</qn_method>
		</solver>
	</Control>
	<Globals>
		<Constants>
			<T>0</T>
			<P>0</P>
			<R>8.31446e-06</R>
			<Fc>9.64853e-05</Fc>
		</Constants>
	</Globals>
	<Material>
		<material id="1" name="Material C" type="biphasic">
			<phi0>0.1</phi0>
			<fluid_density>1e-09</fluid_density>
			<tau>138</tau>
			<solid type="viscoelastic">
				<density>1e-09</density>
				<t1>2.18</t1>
				<t2>516.73</t2>
				<t3>1</t3>
				<t4>1</t4>
				<t5>1</t5>
				<t6>1</t6>
				<g0>1</g0>
				<g1>3.33</g1>
				<g2>1.33</g2>
				<g3>0</g3>
				<g4>0</g4>
				<g5>0</g5>
				<g6>0</g6>
				<elastic type="Ogden unconstrained">
					<cp>0.000385</cp>
					<c1>0.00084</c1>
					<c2>0</c2>
					<c3>0</c3>
					<c4>0</c4>
					<c5>0</c5>
					<c6>0</c6>
					<m1>-21.27</m1>
					<m2>1</m2>
					<m3>1</m3>
					<m4>1</m4>
					<m5>1</m5>
					<m6>1</m6>
				</elastic>
			</solid>
			<permeability type="perm-const-iso">
				<perm>0.0242</perm>
			</permeability>
		</material>
		<material id="2" name="Material BG" type="biphasic">
			<phi0>0.1</phi0>
			<fluid_density>1e-09</fluid_density>
			<tau>138</tau>
			<solid type="viscoelastic">
				<density>1e-09</density>
				<t1>3.34</t1>
				<t2>889.52</t2>
				<t3>1</t3>
				<t4>1</t4>
				<t5>1</t5>
				<t6>1</t6>
				<g0>1</g0>
				<g1>3.997</g1>
				<g2>1.588</g2>
				<g3>0</g3>
				<g4>0</g4>
				<g5>0</g5>
				<g6>0</g6>
				<elastic type="Ogden unconstrained">
					<cp>0.000155833</cp>
					<c1>0.00034</c1>
					<c2>0</c2>
					<c3>0</c3>
					<c4>0</c4>
					<c5>0</c5>
					<c6>0</c6>
					<m1>-21.52</m1>
					<m2>1</m2>
					<m3>1</m3>
					<m4>1</m4>
					<m5>1</m5>
					<m6>1</m6>
				</elastic>
			</solid>
			<permeability type="perm-const-iso">
				<perm>0.0242</perm>
			</permeability>
		</material>
		<material id="3" name="Material CR" type="biphasic">
			<phi0>0.1</phi0>
			<fluid_density>1e-09</fluid_density>
			<tau>138</tau>
			<solid type="viscoelastic">
				<density>1e-09</density>
				<t1>2.18</t1>
				<t2>1199.16</t2>
				<t3>1</t3>
				<t4>1</t4>
				<t5>1</t5>
				<t6>1</t6>
				<g0>1</g0>
				<g1>6</g1>
				<g2>2</g2>
				<g3>0</g3>
				<g4>0</g4>
				<g5>0</g5>
				<g6>0</g6>
				<elastic type="Ogden unconstrained">
					<cp>0.000146667</cp>
					<c1>0.00032</c1>
					<c2>0</c2>
					<c3>0</c3>
					<c4>0</c4>
					<c5>0</c5>
					<c6>0</c6>
					<m1>-25.66</m1>
					<m2>1</m2>
					<m3>1</m3>
					<m4>1</m4>
					<m5>1</m5>
					<m6>1</m6>
				</elastic>
			</solid>
			<permeability type="perm-const-iso">
				<perm>0.0242</perm>
			</permeability>
		</material>
		<material id="4" name="Material CC" type="biphasic">
			<phi0>0.1</phi0>
			<fluid_density>1e-09</fluid_density>
			<tau>138</tau>
			<solid type="viscoelastic">
				<density>1e-09</density>
				<t1>3</t1>
				<t2>1453</t2>
				<t3>1</t3>
				<t4>1</t4>
				<t5>1</t5>
				<t6>1</t6>
				<g0>1</g0>
				<g1>16</g1>
				<g2>4</g2>
				<g3>0</g3>
				<g4>0</g4>
				<g5>0</g5>
				<g6>0</g6>
				<elastic type="Ogden unconstrained">
					<cp>3.66667e-05</cp>
					<c1>8e-05</c1>
					<c2>0</c2>
					<c3>0</c3>
					<c4>0</c4>
					<c5>0</c5>
					<c6>0</c6>
					<m1>-28.41</m1>
					<m2>1</m2>
					<m3>1</m3>
					<m4>1</m4>
					<m5>1</m5>
					<m6>1</m6>
				</elastic>
			</solid>
			<permeability type="perm-const-iso">
				<perm>0.0242</perm>
			</permeability>
		</material>
	</Material>
	<Mesh>
		<Nodes name="Object1">
			<node id="1">-3.53553391,-3.53553391,0</node>
			<node id="2">0,-3.53553391,0</node>
			<node id="3">3.53553391,-3.53553391,0</node>
			<node id="4">-3.53553391,0,0</node>
			<node id="5">0,0,0</node>
			<node id="6">3.53553391,0,0</node>
			<node id="7">-3.53553391,3.53553391,0</node>
			<node id="8">0,3.53553391,0</node>
			<node id="9">3.53553391,3.53553391,0</node>
			<node id="10">-3.53553391,-3.53553391,3.53553391</node>
			<node id="11">0,-3.53553391,3.53553391</node>
			<node id="12">3.53553391,-3.53553391,3.53553391</node>
			<node id="13">-3.53553391,0,3.53553391</node>
			<node id="14">0,0,3.53553391</node>
			<node id="15">3.53553391,0,3.53553391</node>
			<node id="16">-3.53553391,3.53553391,3.53553391</node>
			<node id="17">0,3.53553391,3.53553391</node>
			<node id="18">3.53553391,3.53553391,3.53553391</node>
			<node id="19">-7.07106781,-7.07106781,0</node>
			<node id="20">0,-10,0</node>
<!-- ... 14416 like lines cut -->
		</Nodes>
		<Elements type="hex8" name="BG Basal Ganglia">
			<elem id="1">1,40,460,51,110,560,2240,639</elem>
			<elem id="2">40,39,461,460,560,561,2241,2240</elem>
			<elem id="3">39,38,462,461,561,562,2242,2241</elem>
			<elem id="4">38,37,463,462,562,563,2243,2242</elem>
			<elem id="5">37,36,464,463,563,564,2244,2243</elem>
			<elem id="6">36,2,45,464,564,96,585,2244</elem>
			<elem id="7">51,460,465,52,639,2240,2245,638</elem>
			<elem id="8">460,461,466,465,2240,2241,2246,2245</elem>
			<elem id="9">461,462,467,466,2241,2242,2247,2246</elem>
			<elem id="10">462,463,468,467,2242,2243,2248,2247</elem>
			<elem id="11">463,464,469,468,2243,2244,2249,2248</elem>
			<elem id="12">464,45,44,469,2244,585,586,2249</elem>
			<elem id="13">52,465,470,53,638,2245,2250,637</elem>
			<elem id="14">465,466,471,470,2245,2246,2251,2250</elem>
			<elem id="15">466,467,472,471,2246,2247,2252,2251</elem>
			<elem id="16">467,468,473,472,2247,2248,2253,2252</elem>
			<elem id="17">468,469,474,473,2248,2249,2254,2253</elem>
			<elem id="18">469,44,43,474,2249,586,587,2254</elem>
			<elem id="19">53,470,475,54,637,2250,2255,636</elem>
			<elem id="20">470,471,476,475,2250,2251,2256,2255</elem>
<!-- ... 4300 like lines cut -->
		</Elements>
		<Elements type="hex8" name="Corpus Callosus CC">
			<elem id="4321">19,212,1065,232,4840,4861,4997,4867</elem>
			<elem id="4322">212,211,1066,1065,4861,4860,4998,4997</elem>
			<elem id="4323">211,210,1067,1066,4860,4859,4999,4998</elem>
			<elem id="4324">210,209,1068,1067,4859,4858,5000,4999</elem>
			<elem id="4325">209,208,1069,1068,4858,4857,5001,5000</elem>
			<elem id="4326">208,20,244,1069,4857,4841,4872,5001</elem>
			<elem id="4327">232,1065,1070,233,4867,4997,5002,4868</elem>
			<elem id="4328">1065,1066,1071,1070,4997,4998,5003,5002</elem>
			<elem id="4329">1066,1067,1072,1071,4998,4999,5004,5003</elem>
			<elem id="4330">1067,1068,1073,1072,4999,5000,5005,5004</elem>
			<elem id="4331">1068,1069,1074,1073,5000,5001,5006,5005</elem>
			<elem id="4332">1069,244,245,1074,5001,4872,4873,5006</elem>
			<elem id="4333">233,1070,1075,234,4868,5002,5007,4869</elem>
			<elem id="4334">1070,1071,1076,1075,5002,5003,5008,5007</elem>
			<elem id="4335">1071,1072,1077,1076,5003,5004,5009,5008</elem>
			<elem id="4336">1072,1073,1078,1077,5004,5005,5010,5009</elem>
			<elem id="4337">1073,1074,1079,1078,5005,5006,5011,5010</elem>
			<elem id="4338">1074,245,246,1079,5006,4873,4874,5011</elem>
			<elem id="4339">234,1075,1080,235,4869,5007,5012,4870</elem>
			<elem id="4340">1075,1076,1081,1080,5007,5008,5013,5012</elem>
<!-- ... 1276 like lines cut -->
		</Elements>
		<Elements type="hex8" name="CR Corona Radiata">
			<elem id="5617">5754,5775,5911,5781,6211,6232,6368,6238</elem>
			<elem id="5618">5775,5774,5912,5911,6232,6231,6369,6368</elem>
			<elem id="5619">5774,5773,5913,5912,6231,6230,6370,6369</elem>
			<elem id="5620">5773,5772,5914,5913,6230,6229,6371,6370</elem>
			<elem id="5621">5772,5771,5915,5914,6229,6228,6372,6371</elem>
			<elem id="5622">5771,5755,5786,5915,6228,6212,6243,6372</elem>
			<elem id="5623">5781,5911,5916,5782,6238,6368,6373,6239</elem>
			<elem id="5624">5911,5912,5917,5916,6368,6369,6374,6373</elem>
			<elem id="5625">5912,5913,5918,5917,6369,6370,6375,6374</elem>
			<elem id="5626">5913,5914,5919,5918,6370,6371,6376,6375</elem>
			<elem id="5627">5914,5915,5920,5919,6371,6372,6377,6376</elem>
			<elem id="5628">5915,5786,5787,5920,6372,6243,6244,6377</elem>
			<elem id="5629">5782,5916,5921,5783,6239,6373,6378,6240</elem>
			<elem id="5630">5916,5917,5922,5921,6373,6374,6379,6378</elem>
			<elem id="5631">5917,5918,5923,5922,6374,6375,6380,6379</elem>
			<elem id="5632">5918,5919,5924,5923,6375,6376,6381,6380</elem>
			<elem id="5633">5919,5920,5925,5924,6376,6377,6382,6381</elem>
			<elem id="5634">5920,5787,5788,5925,6377,6244,6245,6382</elem>
			<elem id="5635">5783,5921,5926,5784,6240,6378,6383,6241</elem>
			<elem id="5636">5921,5922,5927,5926,6378,6379,6384,6383</elem>
<!-- ... 6460 like lines cut -->
		</Elements>
		<Elements type="hex8" name="C Cortex">
			<elem id="12097">12609,12630,12766,12636,13066,13087,13223,13093</elem>
			<elem id="12098">12630,12629,12767,12766,13087,13086,13224,13223</elem>
			<elem id="12099">12629,12628,12768,12767,13086,13085,13225,13224</elem>
			<elem id="12100">12628,12627,12769,12768,13085,13084,13226,13225</elem>
			<elem id="12101">12627,12626,12770,12769,13084,13083,13227,13226</elem>
			<elem id="12102">12626,12610,12641,12770,13083,13067,13098,13227</elem>
			<elem id="12103">12636,12766,12771,12637,13093,13223,13228,13094</elem>
			<elem id="12104">12766,12767,12772,12771,13223,13224,13229,13228</elem>
			<elem id="12105">12767,12768,12773,12772,13224,13225,13230,13229</elem>
			<elem id="12106">12768,12769,12774,12773,13225,13226,13231,13230</elem>
			<elem id="12107">12769,12770,12775,12774,13226,13227,13232,13231</elem>
			<elem id="12108">12770,12641,12642,12775,13227,13098,13099,13232</elem>
			<elem id="12109">12637,12771,12776,12638,13094,13228,13233,13095</elem>
			<elem id="12110">12771,12772,12777,12776,13228,13229,13234,13233</elem>
			<elem id="12111">12772,12773,12778,12777,13229,13230,13235,13234</elem>
			<elem id="12112">12773,12774,12779,12778,13230,13231,13236,13235</elem>
			<elem id="12113">12774,12775,12780,12779,13231,13232,13237,13236</elem>
			<elem id="12114">12775,12642,12643,12780,13232,13099,13100,13237</elem>
			<elem id="12115">12638,12776,12781,12639,13095,13233,13238,13096</elem>
			<elem id="12116">12776,12777,12782,12781,13233,13234,13239,13238</elem>
<!-- ... 1276 like lines cut -->
		</Elements>
		<NodeSet name="Pressure nodes">
			6112, 6113, 6114, 6117, 6118, 6119, 6122, 6123,
			6124
		</NodeSet>
		<NodeSet name="ZeroFluidPressure4">
			1, 2, 3, 4, 5, 6, 7, 8,
			9, 19, 20, 21, 22, 23, 24, 25,
			26, 36, 37, 38, 39, 40, 41, 42,
			43, 44, 45, 46, 47, 48, 49, 50,
			51, 52, 53, 54, 55, 56, 57, 58,
			59, 60, 61, 62, 63, 64, 65, 66,
			67, 68, 69, 70, 71, 72, 73, 74,
			75, 76, 77, 78, 79, 80, 81, 82,
			83, 84, 85, 86, 87, 88, 89, 90,
			91, 92, 93, 94, 95, 201, 202, 203,
			204, 205, 206, 207, 208, 209, 210, 211,
			212, 213, 214, 215, 216, 217, 218, 219,
			220, 221, 222, 223, 224, 225, 226, 227,
			228, 229, 230, 231, 278, 279, 280, 281,
			282, 283, 284, 285, 286, 287, 288, 289,
			290, 291, 292, 293, 294, 295, 296, 297,
			298, 299, 300, 301, 336, 337, 338, 339,
			340, 341, 342, 343, 344, 345, 346, 347,
			348, 349, 350, 351, 352, 353, 354, 355,
			356, 357, 358, 359, 394, 395, 396, 397,
<!-- ... 50 like lines cut -->
		</NodeSet>
		<ElementSet name="ZeroDisplacementBasalGanglia">
			1, 2, 3, 4, 5, 6, 7, 8,
			9, 10, 11, 12, 13, 14, 15, 16,
			17, 18, 19, 20, 21, 22, 23, 24,
			25, 26, 27, 28, 29, 30, 31, 32,
			33, 34, 35, 36, 37, 38, 39, 40,
			41, 42, 43, 44, 45, 46, 47, 48,
			49, 50, 51, 52, 53, 54, 55, 56,
			57, 58, 59, 60, 61, 62, 63, 64,
			65, 66, 67, 68, 69, 70, 71, 72,
			73, 74, 75, 76, 77, 78, 79, 80,
			81, 82, 83, 84, 85, 86, 87, 88,
			89, 90, 91, 92, 93, 94, 95, 96,
			97, 98, 99, 100, 101, 102, 103, 104,
			105, 106, 107, 108, 109, 110, 111, 112,
			113, 114, 115, 116, 117, 118, 119, 120,
			121, 122, 123, 124, 125, 126, 127, 128,
			129, 130, 131, 132, 133, 134, 135, 136,
			137, 138, 139, 140, 141, 142, 143, 144,
			145, 146, 147, 148, 149, 150, 151, 152,
			153, 154, 155, 156, 157, 158, 159, 160,
<!-- ... 520 like lines cut -->
		</ElementSet>
		<ElementSet name="Fix Cortex">
			12097, 12098, 12099, 12100, 12101, 12102, 12103, 12104,
			12105, 12106, 12107, 12108, 12109, 12110, 12111, 12112,
			12113, 12114, 12115, 12116, 12117, 12118, 12119, 12120,
			12121, 12122, 12123, 12124, 12125, 12126, 12127, 12128,
			12129, 12130, 12131, 12132, 12133, 12134, 12135, 12136,
			12137, 12138, 12139, 12140, 12141, 12142, 12143, 12144,
			12145, 12146, 12147, 12148, 12149, 12150, 12151, 12152,
			12153, 12154, 12155, 12156, 12157, 12158, 12159, 12160,
			12161, 12162, 12163, 12164, 12165, 12166, 12167, 12168,
			12169, 12170, 12171, 12172, 12173, 12174, 12175, 12176,
			12177, 12178, 12179, 12180, 12181, 12182, 12183, 12184,
			12185, 12186, 12187, 12188, 12189, 12190, 12191, 12192,
			12193, 12194, 12195, 12196, 12197, 12198, 12199, 12200,
			12201, 12202, 12203, 12204, 12205, 12206, 12207, 12208,
			12209, 12210, 12211, 12212, 12213, 12214, 12215, 12216,
			12217, 12218, 12219, 12220, 12221, 12222, 12223, 12224,
			12225, 12226, 12227, 12228, 12229, 12230, 12231, 12232,
			12233, 12234, 12235, 12236, 12237, 12238, 12239, 12240,
			12241, 12242, 12243, 12244, 12245, 12246, 12247, 12248,
			12249, 12250, 12251, 12252, 12253, 12254, 12255, 12256,
<!-- ... 142 like lines cut -->
		</ElementSet>
	</Mesh>
	<MeshDomains>
		<SolidDomain name="BG Basal Ganglia" mat="Material BG" type="biphasic-solid">
			<secant_stress>0</secant_stress>
			<secant_tangent>0</secant_tangent>
			<secant_permeability_tangent>0</secant_permeability_tangent>
		</SolidDomain>
		<SolidDomain name="Corpus Callosus CC" mat="Material CC"/>
		<SolidDomain name="CR Corona Radiata" mat="Material CR"/>
		<SolidDomain name="C Cortex" mat="Material C"/>
	</MeshDomains>
	<Boundary>
		<bc name="Edema Pressure" node_set="Pressure nodes" type="prescribed fluid pressure">
			<value lc="1">0.004</value>
			<relative>0</relative>
		</bc>
		<bc name="Fix Basal Ganglia" node_set="@elem_set:ZeroDisplacementBasalGanglia" type="zero displacement">
			<x_dof>1</x_dof>
			<y_dof>1</y_dof>
			<z_dof>1</z_dof>
		</bc>
		<bc name="Fix Cortex" node_set="@elem_set:Fix Cortex" type="zero displacement">
			<x_dof>1</x_dof>
			<y_dof>1</y_dof>
			<z_dof>1</z_dof>
		</bc>
		<bc name="ZeroFluidPressure4" node_set="ZeroFluidPressure4" type="zero fluid pressure"/>
	</Boundary>
	<LoadData>
		<load_controller id="1" name="LC1" type="loadcurve">
			<interpolate>LINEAR</interpolate>
			<extend>CONSTANT</extend>
			<points>
				<pt>0,0</pt>
				<pt>259200,1</pt>
			</points>
		</load_controller>
	</LoadData>
	<Output>
		<plotfile type="febio">
			<var type="displacement"/>
			<var type="stress"/>
			<var type="relative volume"/>
			<var type="solid stress"/>
			<var type="effective fluid pressure"/>
			<var type="fluid pressure"/>
			<var type="fluid flux"/>
		</plotfile>
	</Output>
</febio_spec>
